Circuit: * D:\PersonalProjects\Self-Mixing Diode\Simulations\QI_Demodulator.asc

WARNING: Less than two connections to node VS.  This node is used by V6.
Direct Newton iteration for .op point succeeded.
.step phase=0
Heightened Def Con from 0.000796713 to 0.000796713
