Circuit: * D:\PersonalProjects\Self-Mixing Diode\Simulations\Variable_Phase.asc

C14: both pins shorted together -- ignoring.
WARNING: Less than two connections to node VS.  This node is used by V6.
Direct Newton iteration for .op point succeeded.
.step phase=-4
.step phase=-3.9
.step phase=-3.8
.step phase=-3.7
.step phase=-3.6
.step phase=-3.5
.step phase=-3.4
.step phase=-3.3
.step phase=-3.2
.step phase=-3.1
.step phase=-3
.step phase=-2.9
.step phase=-2.8
.step phase=-2.7
.step phase=-2.6
.step phase=-2.5
.step phase=-2.4
.step phase=-2.3
.step phase=-2.2
.step phase=-2.1
.step phase=-2
.step phase=-1.9
.step phase=-1.8
.step phase=-1.7
.step phase=-1.6
.step phase=-1.5
.step phase=-1.4
.step phase=-1.3
.step phase=-1.2
.step phase=-1.1
.step phase=-1
.step phase=-0.9
.step phase=-0.8
.step phase=-0.7
.step phase=-0.6
.step phase=-0.5
.step phase=-0.4
.step phase=-0.3
.step phase=-0.2
.step phase=-0.1
.step phase=2.41474e-015
.step phase=0.1
.step phase=0.2
.step phase=0.3
.step phase=0.4
.step phase=0.5
.step phase=0.6
.step phase=0.7
.step phase=0.8
.step phase=0.9
.step phase=1
.step phase=1.1
.step phase=1.2
.step phase=1.3
.step phase=1.4
.step phase=1.5
.step phase=1.6
.step phase=1.65

Date: Sun Aug 13 18:22:38 2023
Total elapsed time: 4.989 seconds.

tnom = 27
temp = 27
method = trap
totiter = 14
traniter = 0
tranpoints = 0
accept = 0
rejected = 0
matrix size = 13
fillins = 3
solver = Normal
Matrix Compiler1:      59 opcodes
Matrix Compiler2: 1.06 KB object code size
